12
Coordinates from ORCA-job OEG1
  S   0.50574000000000     -0.51331000000000     -0.15033000000000
  C   0.50574000000000      1.32617000000000     -0.15033000000000
  C   -0.85630000000000      1.85268000000000      0.31332000000000
  O   -0.83786000000000      3.29051000000000      0.30705000000000
  C   -2.08611000000000      3.81387000000000      0.73196000000000
  H   0.72121000000000      1.74773000000000     -1.14029000000000
  H   1.28045000000000      1.74772000000000      0.50258000000000
  H   -1.07914000000000      1.50904000000000      1.33165000000000
  H   -1.65416000000000      1.50904000000000     -0.35756000000000
  H   -2.02674000000000      4.90545000000000      0.71175000000000
  H   -2.30865000000000      3.49715000000000      1.75557000000000
  H   -2.88696000000000      3.49713000000000      0.05674000000000
