42

S          8.81748        5.49166       -7.88858
C          8.50447        4.04534       -6.81328
C          7.00337        3.90842       -6.54618
C          6.65466        2.67266       -5.70382
C          7.27192        2.62347       -4.30113
C          6.86202        3.80003       -3.41124
C          7.49346        3.76260       -2.01400
C          9.02110        3.84156       -1.99859
C          9.54150        5.14435       -2.57072
O          9.28530        6.22938       -2.05146
N         10.32622        4.98511       -3.68851
C         10.75539        6.11246       -4.49737
C         12.10571        6.63725       -4.03479
C         12.55286        7.83004       -4.87757
C         13.92071        8.33310       -4.42259
C         14.36943        9.53839       -5.23121
H          9.02277        4.14194       -5.85842
H          8.87911        3.11419       -7.25447
H          6.46309        3.81993       -7.49869
H          6.60937        4.80951       -6.05730
H          6.97300        1.77556       -6.25019
H          5.56368        2.60905       -5.61460
H          8.36033        2.56501       -4.39112
H          6.95697        1.68930       -3.81869
H          5.77040        3.79024       -3.29628
H          7.11582        4.75162       -3.88802
H          7.18246        2.84366       -1.50199
H          7.08367        4.59744       -1.43140
H          9.46187        2.98250       -2.51344
H          9.37748        3.78940       -0.96307
H         10.31370        4.09308       -4.16396
H          9.98947        6.89503       -4.46543
H         10.84155        5.75299       -5.52622
H         12.85003        5.83348       -4.10790
H         12.05403        6.92455       -2.97808
H         11.81365        8.63615       -4.79510
H         12.59845        7.54199       -5.93590
H         14.66287        7.53281       -4.52536
H         13.88131        8.60523       -3.36155
H         14.45284        9.28903       -6.29351
H         15.34918        9.88191       -4.88375
H         13.66158       10.36589       -5.12600
