42

S          9.56652       -4.23757       -6.92953
C          8.86181       -2.56648       -7.19177
C          7.33606       -2.58088       -7.01475
C          6.82168       -2.85148       -5.59152
C          7.27847       -1.80895       -4.56837
C          6.83227       -2.13093       -3.13927
C          7.39219       -3.43679       -2.57671
C          8.90513       -3.43209       -2.45822
O          9.48445       -2.72405       -1.63724
N          9.53911       -4.30896       -3.30976
C         10.98403       -4.37772       -3.38693
C         11.58009       -5.27000       -2.30000
C         13.10642       -5.32818       -2.42365
C         13.71873       -6.23563       -1.35911
C         15.24390       -6.26761       -1.47385
C         15.86055       -7.16526       -0.41165
H          9.06741       -2.20703       -8.20827
H          9.30431       -1.80763       -6.53717
H          6.88896       -3.32405       -7.69010
H          6.94468       -1.60886       -7.33843
H          7.12429       -3.85612       -5.28409
H          5.72507       -2.86462       -5.61706
H          6.86395       -0.83314       -4.85177
H          8.36677       -1.69827       -4.57719
H          5.73663       -2.17329       -3.10511
H          7.13216       -1.29893       -2.48985
H          7.05338       -4.30039       -3.15684
H          6.99809       -3.58837       -1.56404
H          9.07512       -4.51703       -4.19739
H         11.39022       -3.36263       -3.32775
H         11.23824       -4.79102       -4.36720
H         11.16290       -6.28080       -2.38593
H         11.30097       -4.89635       -1.30844
H         13.51530       -4.31521       -2.32614
H         13.38019       -5.69271       -3.41999
H         13.31943       -7.25144       -1.46685
H         13.43151       -5.88275       -0.36121
H         15.64701       -5.25427       -1.36697
H         15.53394       -6.63257       -2.46542
H         15.60804       -6.81153        0.59226
H         16.95179       -7.17103       -0.50433
H         15.50173       -8.19441       -0.51244
