42

S          0.83332       -0.52153       -3.64597
C          2.63536       -0.26900       -3.89497
C          3.25121        0.27574       -2.60585
C          4.75760        0.40375       -2.72565
O          5.32329        1.44554       -3.05523
N          5.44066       -0.75399       -2.41400
C          6.88238       -0.82938       -2.45883
C          7.39029       -1.25705       -3.83240
C          8.91965       -1.27327       -3.86384
C          9.45400       -1.71557       -5.22567
C         10.98366       -1.71940       -5.24090
C         11.52373       -2.16416       -6.59974
C         13.05294       -2.17131       -6.61680
C         13.58507       -2.61898       -7.97865
C         15.11265       -2.63006       -8.00514
C         15.63861       -3.07622       -9.36076
H          2.85251        0.43314       -4.71009
H          3.14051       -1.20039       -4.17503
H          3.03126       -0.37901       -1.74990
H          2.85147        1.26547       -2.35129
H          4.89252       -1.59473       -2.27161
H          7.19220       -1.54993       -1.69498
H          7.29975        0.14776       -2.18849
H          7.01089       -0.57516       -4.60305
H          7.00033       -2.25405       -4.07406
H          9.29555       -1.94922       -3.08594
H          9.29986       -0.27085       -3.63076
H          9.07981       -1.04099       -6.00548
H          9.08066       -2.71991       -5.45922
H         11.35759       -2.39162       -4.45893
H         11.35650       -0.71441       -5.00834
H         11.15090       -1.49085       -7.38121
H         11.14941       -3.16851       -6.83253
H         13.42696       -2.84429       -5.83568
H         13.42881       -1.16710       -6.38606
H         13.20904       -1.94574       -8.75859
H         13.20657       -3.62245       -8.20827
H         15.49439       -3.30515       -7.23076
H         15.49695       -1.62841       -7.78170
H         15.29611       -4.08815       -9.59947
H         16.73251       -3.07790       -9.36107
H         15.29844       -2.40235      -10.15347
