42

S          0.94101        0.10228       -0.06329
C          2.77251        0.10830       -0.08249
C          3.29122       -1.06379        0.76097
C          4.82239       -1.09169        0.77632
C          5.35015       -2.25847        1.61276
C          6.87794       -2.27764        1.62052
C          7.42570       -3.43894        2.45115
C          8.95395       -3.42692        2.44781
C          9.53253       -4.56061        3.29021
C         11.04861       -4.56019        3.26115
O         11.69585       -5.48411        2.77965
N         11.62136       -3.44841        3.83873
C         13.05113       -3.22525        3.82989
C         13.53895       -2.57730        2.53331
C         12.95628       -1.17803        2.31874
C         13.50533       -0.53209        1.05600
H          3.18524        1.04232        0.31816
H          3.17477        0.01755       -1.09901
H          2.92225       -2.01768        0.36078
H          2.92697       -0.98480        1.79405
H          5.20305       -0.14677        1.18311
H          5.19886       -1.17676       -0.25040
H          4.97169       -3.20436        1.20746
H          4.97754       -2.17348        2.64087
H          7.25277       -1.32952        2.02548
H          7.24907       -2.35735        0.59138
H          7.06080       -4.39039        2.04622
H          7.05796       -3.36122        3.48162
H          9.30356       -2.45826        2.82389
H          9.32463       -3.51173        1.41866
H          9.18444       -5.52907        2.91178
H          9.20461       -4.48107        4.33318
H         11.02232       -2.69647        4.15347
H         13.55854       -4.18598        3.97062
H         13.28635       -2.59013        4.69015
H         13.28493       -3.21482        1.67780
H         14.63324       -2.50999        2.57002
H         13.19141       -0.54087        3.17913
H         11.86442       -1.23054        2.24166
H         14.59307       -0.42255        1.11153
H         13.07075        0.46340        0.92057
H         13.26412       -1.13081        0.17188
