42

S          5.84541       -0.63893        0.87025
C          5.10280        1.03011        0.93282
C          5.46240        1.80137       -0.34462
C          4.90422        3.23151       -0.36129
C          5.40417        4.13256        0.76513
C          6.90388        4.34860        0.71820
O          7.44307        5.01167       -0.16418
N          7.58581        3.76563        1.76409
C          9.03122        3.77004        1.82048
C          9.56372        5.05502        2.45104
C         11.09310        5.06994        2.47105
C         11.62742        6.35381        3.10727
C         13.15798        6.37464        3.11333
C         13.69039        7.65832        3.75141
C         15.21823        7.68381        3.76198
C         15.74826        8.95943        4.39680
H          5.46345        1.57603        1.80894
H          4.01101        1.00068        1.03011
H          5.05538        1.27734       -1.22133
H          6.54994        1.84011       -0.48797
H          3.80886        3.18796       -0.31473
H          5.15644        3.68746       -1.32699
H          5.09799        3.74924        1.74361
H          4.93919        5.12171        0.67539
H          7.10206        3.04709        2.29283
H          9.42891        3.63953        0.80812
H          9.33269        2.90262        2.41779
H          9.17742        5.14804        3.47440
H          9.19398        5.92705        1.89826
H         11.47268        4.98361        1.44640
H         11.46289        4.20172        3.02934
H         11.25220        6.44048        4.13506
H         11.25223        7.22303        2.55340
H         13.53295        6.28947        2.08652
H         13.53246        5.50716        3.67007
H         13.31605        7.74173        4.78168
H         13.31210        8.52768        3.20142
H         15.59798        7.60711        2.73676
H         15.60255        6.81913        4.31615
H         15.40734        9.84207        3.84624
H         16.84263        8.95853        4.39362
H         15.41120        9.05014        5.43432
