19
Coordinates from ORCA-job OEG2
  S   -1.27565000000000     -0.67925000000000      0.65285000000000
  C   0.56123000000000     -0.63047000000000      0.61204000000000
  C   1.04096000000000      0.42246000000000     -0.39248000000000
  O   2.47842000000000      0.43952000000000     -0.40571000000000
  C   2.96954000000000      1.40856000000000     -1.32800000000000
  C   4.49319000000000      1.38524000000000     -1.30496000000000
  O   5.00985000000000      2.35115000000000     -2.22411000000000
  C   6.43024000000000      2.35328000000000     -2.22548000000000
  H   1.00217000000000     -1.59698000000000      0.33703000000000
  H   0.99824000000000     -0.39833000000000      1.59147000000000
  H   0.67996000000000      1.42024000000000     -0.11221000000000
  H   0.68297000000000      0.18756000000000     -1.40300000000000
  H   2.60952000000000      2.40782000000000     -1.05580000000000
  H   2.61028000000000      1.18595000000000     -2.33975000000000
  H   4.85196000000000      0.38444000000000     -1.57463000000000
  H   4.85152000000000      1.60506000000000     -0.29197000000000
  H   6.77247000000000      3.10545000000000     -2.94149000000000
  H   6.81550000000000      1.37690000000000     -2.53457000000000
  H   6.81481000000000      2.61457000000000     -1.23487000000000
