19
Coordinates from ORCA-job OEG2
  S   0.62841000000000     -1.34418000000000      0.64721000000000
  C   0.62841000000000      0.49382000000000      0.64721000000000
  C   -0.37118000000000      1.02347000000000     -0.38620000000000
  O   -0.35089000000000      2.46085000000000     -0.36672000000000
  C   -1.26981000000000      2.99758000000000     -1.31455000000000
  C   -1.20854000000000      4.51915000000000     -1.25580000000000
  O   -2.12399000000000      5.08136000000000     -2.19960000000000
  C   -2.09010000000000      6.50090000000000     -2.16833000000000
  H   1.61608000000000      0.91495000000000      0.42045000000000
  H   0.36901000000000      0.91492000000000      1.62678000000000
  H   -1.38831000000000      0.68292000000000     -0.15337000000000
  H   -0.10588000000000      0.68175000000000     -1.39474000000000
  H   -2.28798000000000      2.65830000000000     -1.08980000000000
  H   -1.01644000000000      2.65484000000000     -2.32481000000000
  H   -0.18906000000000      4.85740000000000     -1.47794000000000
  H   -1.45889000000000      4.86099000000000     -0.24406000000000
  H   -2.80447000000000      6.87843000000000     -2.90493000000000
  H   -1.09294000000000      6.86721000000000     -2.43019000000000
  H   -2.38055000000000      6.87029000000000     -1.18000000000000
