33
Coordinates from ORCA-job OEG4
  S   -1.64421000000000     -2.78705000000000      0.98863000000000
  C   -1.64421000000000     -0.94894000000000      0.98863000000000
  C   -0.42654000000000     -0.42099000000000      0.22365000000000
  O   -0.44848000000000      1.01652000000000      0.23661000000000
  C   0.67098000000000      1.54804000000000     -0.46562000000000
  C   0.60667000000000      3.06994000000000     -0.42731000000000
  O   1.72604000000000      3.61595000000000     -1.12903000000000
  C   1.70454000000000      5.04145000000000     -1.11540000000000
  C   2.91751000000000      5.56478000000000     -1.87606000000000
  O   2.90691000000000      6.99277000000000     -1.86935000000000
  C   4.02995000000000      7.52388000000000     -2.57212000000000
  C   3.96763000000000      9.04632000000000     -2.53449000000000
  O   5.08671000000000      9.58990000000000     -3.23454000000000
  C   5.06399000000000     11.01090000000000     -3.22187000000000
  H   -1.62568000000000     -0.52742000000000      2.00162000000000
  H   -2.54880000000000     -0.52739000000000      0.53241000000000
  H   -0.44388000000000     -0.76320000000000     -0.81906000000000
  H   0.50524000000000     -0.76247000000000      0.69249000000000
  H   0.66429000000000      1.20348000000000     -1.50661000000000
  H   1.60521000000000      1.20551000000000     -0.00486000000000
  H   0.61249000000000      3.41578000000000      0.61340000000000
  H   -0.32743000000000      3.41392000000000     -0.88779000000000
  H   1.72592000000000      5.40991000000000     -0.08276000000000
  H   0.78426000000000      5.41011000000000     -1.58411000000000
  H   2.89597000000000      5.19430000000000     -2.90810000000000
  H   3.83715000000000      5.19406000000000     -1.40744000000000
  H   4.02237000000000      7.17688000000000     -3.61239000000000
  H   4.96214000000000      7.17815000000000     -2.10956000000000
  H   3.97252000000000      9.39151000000000     -1.49344000000000
  H   3.03363000000000      9.39009000000000     -2.99533000000000
  H   5.93821000000000     11.37418000000000     -3.76860000000000
  H   5.11336000000000     11.38586000000000     -2.19496000000000
  H   4.16228000000000     11.38414000000000     -3.71691000000000
