33
Coordinates from ORCA-job OEG4
  S   -2.78850000000000      0.94744000000000      1.80383000000000
  C   -0.95119000000000      0.92500000000000      1.75466000000000
  C   -0.46570000000000      0.23501000000000      0.47599000000000
  O   0.97196000000000      0.22842000000000      0.46031000000000
  C   1.46439000000000     -0.40731000000000     -0.71542000000000
  C   2.98771000000000     -0.39172000000000     -0.68996000000000
  O   3.49446000000000     -1.02776000000000     -1.86602000000000
  C   4.92010000000000     -1.03571000000000     -1.88037000000000
  C   5.40110000000000     -1.72283000000000     -3.15330000000000
  O   6.82894000000000     -1.73766000000000     -3.17862000000000
  C   7.32078000000000     -2.37517000000000     -4.35724000000000
  C   8.84477000000000     -2.36386000000000     -4.33166000000000
  O   9.34906000000000     -2.99951000000000     -5.50616000000000
  C   10.77024000000000     -3.00884000000000     -5.51930000000000
  H   -0.51284000000000      0.40525000000000      2.61596000000000
  H   -0.51624000000000      1.93179000000000      1.79094000000000
  H   -0.82432000000000      0.76825000000000     -0.41376000000000
  H   -0.82231000000000     -0.80211000000000      0.43439000000000
  H   1.10347000000000      0.11560000000000     -1.60898000000000
  H   1.10578000000000     -1.44268000000000     -0.76498000000000
  H   3.34960000000000     -0.91446000000000      0.20360000000000
  H   3.34752000000000      0.64301000000000     -0.63981000000000
  H   5.30395000000000     -1.56884000000000     -1.00237000000000
  H   5.30432000000000     -0.00930000000000     -1.84401000000000
  H   5.01574000000000     -1.18955000000000     -4.03069000000000
  H   5.01444000000000     -2.74845000000000     -3.18960000000000
  H   6.95979000000000     -1.84933000000000     -5.24912000000000
  H   6.95731000000000     -3.40852000000000     -4.40681000000000
  H   9.20395000000000     -2.88798000000000     -3.43768000000000
  H   9.20656000000000     -1.32979000000000     -4.27982000000000
  H   11.10290000000000     -3.50461000000000     -6.43507000000000
  H   11.15794000000000     -3.56505000000000     -4.66034000000000
  H   11.16043000000000     -1.98646000000000     -5.51404000000000
