61
Coordinates from ORCA-job OEG8
  S   -5.67320000000000     -3.55952000000000     -1.96715000000000
  C   -3.83626000000000     -3.51447000000000     -1.93819000000000
  C   -3.35136000000000     -2.23360000000000     -1.25279000000000
  O   -1.91450000000000     -2.22230000000000     -1.24351000000000
  C   -1.42172000000000     -1.04542000000000     -0.61259000000000
  C   0.09994000000000     -1.07658000000000     -0.62687000000000
  O   0.60510000000000      0.10107000000000      0.00409000000000
  C   2.02884000000000      0.11328000000000      0.01139000000000
  C   2.50557000000000      1.38633000000000      0.69448000000000
  O   3.93179000000000      1.40788000000000      0.70731000000000
  C   4.42307000000000      2.58607000000000      1.33983000000000
  C   5.94383000000000      2.55487000000000      1.32506000000000
  O   6.44061000000000      3.73208000000000      1.95713000000000
  C   7.86484000000000      3.74871000000000      1.96606000000000
  C   8.33808000000000      5.02226000000000      2.65079000000000
  O   9.76293000000000      5.04300000000000      2.66109000000000
  C   10.25517000000000      6.21969000000000      3.29577000000000
  C   11.77649000000000      6.19003000000000      3.27746000000000
  O   12.27195000000000      7.36518000000000      3.91341000000000
  C   13.69719000000000      7.38386000000000      3.92409000000000
  C   14.17123000000000      8.65565000000000      4.61295000000000
  O   15.59671000000000      8.67701000000000      4.62530000000000
  C   16.09039000000000      9.85376000000000      5.26319000000000
  C   17.61339000000000      9.82595000000000      5.24858000000000
  O   18.11496000000000     11.00008000000000      5.88413000000000
  C   19.53618000000000     11.01533000000000      5.89213000000000
  H   -3.39687000000000     -3.55629000000000     -2.94288000000000
  H   -3.40096000000000     -4.37368000000000     -1.41240000000000
  H   -3.70979000000000     -2.18651000000000     -0.21664000000000
  H   -3.70617000000000     -1.34542000000000     -1.79091000000000
  H   -1.78107000000000     -0.98938000000000      0.42205000000000
  H   -1.77850000000000     -0.15272000000000     -1.14039000000000
  H   0.46193000000000     -1.13239000000000     -1.66064000000000
  H   0.45952000000000     -1.96804000000000     -0.09883000000000
  H   2.41425000000000      0.07481000000000     -1.01473000000000
  H   2.41350000000000     -0.76302000000000      0.54722000000000
  H   2.11967000000000      1.42582000000000      1.72041000000000
  H   2.12106000000000      2.26306000000000      0.15917000000000
  H   4.06176000000000      2.64012000000000      2.37387000000000
  H   4.06363000000000      3.47772000000000      0.81213000000000
  H   6.30508000000000      2.50052000000000      0.29091000000000
  H   6.30321000000000      1.66304000000000      1.85236000000000
  H   8.25057000000000      3.71187000000000      0.94024000000000
  H   8.25064000000000      2.87289000000000      2.50109000000000
  H   7.95183000000000      5.05883000000000      3.67657000000000
  H   7.95117000000000      5.89794000000000      2.11608000000000
  H   9.89619000000000      6.26942000000000      4.33095000000000
  H   9.89368000000000      7.11203000000000      2.77187000000000
  H   12.13531000000000      6.14002000000000      2.24228000000000
  H   12.13770000000000      5.29623000000000      3.80028000000000
  H   14.08280000000000      7.34953000000000      2.89805000000000
  H   14.08239000000000      6.50581000000000      4.45627000000000
  H   13.78363000000000      8.68918000000000      5.63836000000000
  H   13.78464000000000      9.53281000000000      4.08012000000000
  H   15.72840000000000      9.90224000000000      6.29720000000000
  H   15.72872000000000     10.74655000000000      4.73901000000000
  H   17.97261000000000      9.77454000000000      4.21359000000000
  H   17.97247000000000      8.93109000000000      5.77114000000000
  H   19.86731000000000     11.93150000000000      6.38803000000000
  H   19.92474000000000     11.01077000000000      4.86926000000000
  H   19.92495000000000     10.15643000000000      6.44748000000000
