33

S -0.131988195691 0.990980326664 -0.00472318348747 
C -0.131988195691 2.82908772162 -0.00472318348747 
C 1.08568608687 3.35703594998 -0.769704155195 
O 1.06373982041 4.79454644558 -0.75674195952 
C 2.18319947621 5.32606530018 -1.45897602836 
C 2.11889718684 6.84796816004 -1.42065963423 
O 3.2382655566 7.39397289825 -2.12238680794 
C 3.21676762498 8.81947847317 -2.10874831717 
C 4.4297314437 9.34281032937 -2.86941492466 
O 4.41912898202 10.770794814 -2.86270329763 
C 5.54217188308 11.3019099479 -3.56547090465 
C 5.47985667499 12.8243427036 -3.52783811739 
O 6.59893112893 13.3679224473 -4.22788790765 
C 6.57620929688 14.7889215301 -4.2152202397 
H -0.113454269564 3.25060342518 1.00826891171 
H -1.03657271479 3.25063969123 -0.460938071041 
H 1.06834435471 3.01482718083 -1.81240908481 
H 2.01746353411 3.01555442011 -0.300864243322 
H 2.17651714882 4.98150982185 -2.49996697248 
H 3.11742840547 4.98353226402 -0.998213558559 
H 2.1247128613 7.19380748158 -0.379954975456 
H 1.18479674572 7.1919504977 -1.88114154037 
H 3.23814367506 9.18793802311 -1.0761118972 
H 2.29648347967 9.18813166767 -2.57745880113 
H 4.40819486461 8.9723263872 -3.9014501237 
H 5.34937532868 8.97208199974 -2.40079653286 
H 5.53459091913 10.9549099439 -4.60574536666 
H 6.47436716163 10.9561770409 -3.10291533922 
H 5.48474339401 13.1695334501 -2.48678865104 
H 4.54585585131 13.1681132141 -3.988684997 
H 7.45043330861 15.1522102189 -4.76195269093 
H 6.62558708827 15.1638824311 -3.1883105394 
H 5.67449981418 15.1621623714 -4.71026202833 
