40

S -0.0584727164053 0.862197345959 -0.157807544046 
C -0.0584727164053 2.70018942391 -0.157807544046 
C 0.0440330539714 3.22753877717 1.27661841321 
O 0.0432910767774 4.66477144416 1.25106951695 
C 0.139144310479 5.19586026277 2.56891679025 
C 0.135350679443 6.71712492862 2.49342251105 
O 0.231797001591 7.26266758206 3.81119038023 
C 0.232510575671 8.68762773424 3.78405552978 
C 0.338127594109 9.21100736288 5.21112420343 
O 0.340374928851 10.6385535976 5.19567848706 
C 0.438212393222 11.1711383042 6.51507154426 
C 0.435609490517 12.6929423884 6.43989678637 
O 0.532367713147 13.2328244673 7.75773109606 
C 0.532504255151 14.6599110816 7.73518040234 
C 0.636426387128 15.182095489 9.16275474997 
O 0.637019197696 16.6093159738 9.15049255943 
C 0.732790115741 17.1376976782 10.4664456953 
H -0.961104463761 3.12203415795 -0.617639512513 
H 0.769661979792 3.12201111846 -0.741271989798 
H 0.972232025883 2.88507497678 1.7517446584 
H -0.808086963253 2.88650926854 1.87842439564 
H 1.06208332467 4.85165568295 3.05077494688 
H -0.705515974532 4.85343304018 3.17866132991 
H -0.78717373376 7.06318458875 2.01171194538 
H 0.979378361407 7.06105427853 1.88338466792 
H -0.689286609807 9.05771510805 3.31952184435 
H 1.07819998005 9.05432078373 3.19006851715 
H 1.25930580076 8.83890927677 5.67565898675 
H -0.507405330515 8.84314812594 5.80492011162 
H 1.36142482105 10.8241009864 6.99484961892 
H -0.40612593633 10.8274594751 7.12478252754 
H -0.4867346998 13.0392618101 5.95851415912 
H 1.28020139021 13.0358678701 5.83008545369 
H -0.389223462597 15.0297190586 7.26965615562 
H 1.37827291603 15.0276646591 7.14153470898 
H 1.55779307504 14.8099589702 9.62700598834 
H -0.208842580942 14.8116229248 9.75512438774 
H 0.729047876724 18.2289064722 10.4004917681 
H 1.66645198894 16.8191768651 10.9400048505 
H -0.123526720858 16.8208686949 11.0695741675 
