47

S 0.140143607632 0.99381811447 -0.00483843894272 
C 0.140143607632 2.83162193572 -0.00483843894272 
C -1.28080463838 3.35884347504 -0.225087873785 
O -1.25447326619 4.79590282537 -0.220027807952 
C -2.56056948053 5.3269971923 -0.420734678274 
C -2.48455996317 6.84770191997 -0.407642275127 
O -3.79076653053 7.39176414399 -0.606713203856 
C -3.76551695597 8.81623139693 -0.600558881551 
C -5.1810964619 9.33554673743 -0.813894247387 
O -5.16801422167 10.7625135828 -0.809505856175 
C -6.47723545948 11.2912530625 -1.00542802859 
C -6.405151607 12.8120020643 -0.991620226941 
O -7.71286329941 13.3473978289 -1.18682829661 
C -7.69396760662 14.7730555774 -1.18284565724 
C -9.11061876507 15.2904276115 -1.39426685977 
O -9.09617808543 16.7169868936 -1.39304995629 
C -10.4058565637 17.2485659716 -1.58831053062 
C -10.3324152818 18.7702249731 -1.5803356687 
O -11.6380931662 19.3103852101 -1.77537543231 
C -11.615792311 20.7312495127 -1.77497617754 
H 0.789746970733 3.25375938278 -0.782018377591 
H 0.523839723179 3.25373755036 0.932602097885 
H -1.95133715759 3.0168310442 0.573632898159 
H -1.67741449261 3.01811513115 -1.19013255363 
H -3.23621192159 4.98338824041 0.371337972191 
H -2.96648041916 4.98505079692 -1.38023770859 
H -1.81000913074 7.19388451375 -1.2000810649 
H -2.07780583294 7.19177155874 0.550959275584 
H -3.10936333543 9.18689042295 -1.39714956966 
H -3.37440743219 9.18449190644 0.35532137138 
H -5.83737116342 8.96318415031 -0.0178939989209 
H -5.57261677655 8.96610512622 -1.76945961994 
H -7.14844124282 10.9432945174 -0.211032189095 
H -6.8848803704 10.9466640599 -1.96342727457 
H -5.73328497256 13.159220962 -1.78585513902 
H -5.99635766083 13.1558600813 -0.0338031296385 
H -7.039219567 15.1441506328 -1.98051454788 
H -7.30123406463 15.1427683034 -0.228006284846 
H -9.76437375817 14.9192399234 -0.59580488794 
H -9.50317602312 14.9182034091 -2.3482338161 
H -11.0751348079 16.9034372095 -0.791108301781 
H -10.8153231721 16.9001719605 -2.54412303741 
H -9.66068945474 19.1128593932 -2.37667987893 
H -9.92073386853 19.116226489 -0.624503022551 
H -12.636216607 21.0913651186 -1.92711884585 
H -10.9879243562 21.10432134 -2.58999109976 
H -11.2515299571 21.1078867015 -0.814249202812 
