54

S 0.10795737911 0.971115656908 0.157635497921 
C 0.10795737911 2.80887350728 0.157635497921 
C -0.1173848893 3.335458154 -1.26226624104 
O -0.11221811106 4.77283617481 -1.23591313523 
C -0.318129372225 5.30392800637 -2.54011766531 
C -0.304792734422 6.82423104767 -2.4638578378 
O -0.512710308327 7.36788454788 -3.76877678343 
C -0.507087443792 8.79190660768 -3.74362999048 
C -0.733810932587 9.30992681688 -5.15694741929 
O -0.728562481524 10.7363528605 -5.14299181826 
C -0.937862961323 11.2653938309 -6.44943146931 
C -0.920588489412 12.7852741936 -6.37534415309 
O -1.12959142434 13.3206357621 -7.6803545363 
C -1.12016644739 14.7455718692 -7.66045156436 
C -1.34691757644 15.26203755 -9.07398177769 
O -1.3373361653 16.6878621747 -9.05803139537 
C -1.54669996181 17.2203041235 -10.3637137899 
C -1.52691270141 18.7409784137 -10.288703179 
O -1.73675892185 19.2770052851 -11.5932813103 
C -1.72683855236 20.7036958833 -11.5740235881 
C -1.95448432589 21.2225521336 -12.9879926503 
O -1.94526755703 22.6487160434 -12.9762359444 
C -2.15376917106 23.1773797394 -14.2786851597 
H 1.0466991764 3.23112421351 0.537951179561 
H -0.666975370827 3.23111421567 0.809961339621 
H -1.08397820784 2.9955289363 -1.65544317031 
H 0.678718667553 2.99386539956 -1.93589394785 
H -1.27941784253 4.96213529609 -2.94273078452 
H 0.471067262066 4.96085344414 -3.21994027054 
H 0.656318650137 7.16908607347 -2.06339601221 
H -1.09316717819 7.17039134902 -1.78444219301 
H 0.452340697011 9.16081502049 -3.36156447332 
H -1.29752144023 9.16290634329 -3.08017641475 
H -1.69334977245 8.94082847339 -5.53898515058 
H 0.0555659954364 8.93716840877 -5.82088117976 
H -1.90088460561 10.9228833728 -6.84692267033 
H -0.151441491883 10.9169334305 -7.12973792012 
H 0.0423786968365 13.1272655716 -5.9771553919 
H -1.70668654608 13.133547263 -5.6945114787 
H -0.159261522531 15.1121027118 -7.27967428963 
H -1.90853500759 15.1197452578 -6.99625603164 
H -2.30792995751 14.8950616023 -9.45418805806 
H -0.55898369054 14.8864410111 -9.73795482137 
H -2.51049496084 16.8793556291 -10.7606595628 
H -0.761508072874 16.8706836178 -11.0447491356 
H -0.562700875154 19.0803846209 -9.89146176278 
H -2.31152043884 19.0891590114 -9.60642323219 
H -0.765608341103 21.0686967857 -11.193007835 
H -2.51474100759 21.0769625566 -10.9086553603 
H -2.91527185879 20.8547228816 -13.367798662 
H -1.16675444 20.8458927971 -13.6518195941 
H -2.13757650696 24.268313421 -14.2141167249 
H -3.12748459129 22.8644439105 -14.66763826 
H -1.35592178853 22.8553239258 -14.9549579398 
