61

S 0.114575778309 0.98679927466 0.0640525679012 
C 0.114575778309 2.82438392623 0.0640525679012 
C -0.639233326803 3.3514494774 -1.16036986583 
O -0.624225363135 4.78798002289 -1.13840074396 
C -1.3155674256 5.31949431528 -2.26327364889 
C -1.2734530279 6.83940445554 -2.19695035236 
O -1.96596719525 7.38300225945 -3.32176830665 
C -1.95053952782 8.80653889019 -3.29973812461 
C -2.70244245072 9.32450744434 -4.51727776715 
O -2.6931928021 10.7508162952 -4.50494245897 
C -3.38957833342 11.279204735 -5.62983172367 
C -3.34769006507 12.7984532429 -5.56456946819 
O -4.04260579345 13.3335300635 -6.68819329162 
C -4.02838165708 14.7583699405 -6.67096661478 
C -4.78198191039 15.2731813509 -7.88746107179 
O -4.76887151305 16.6986218015 -7.87414622274 
C -5.46489052073 17.2297844359 -8.99814756581 
C -5.41922864538 18.7491790393 -8.93458108341 
O -6.11520209536 19.282491496 -10.0581420985 
C -6.10021487109 20.7078017078 -10.045744778 
C -6.85540355623 21.2226784631 -11.2630309511 
O -6.84031523885 22.6484627505 -11.2534362779 
C -7.53673434227 23.180801083 -12.3790812016 
C -7.49021871292 24.7019764269 -12.3186941008 
O -8.18474803365 25.2424308974 -13.4411183527 
C -8.1673163251 26.6635277883 -13.4240058519 
H 1.12731422607 3.24686805807 0.0542402504526 
H -0.350228297229 3.24688303888 0.963872562665 
H -1.68263882942 3.01107974137 -1.15196703345 
H -0.163006519935 3.00957728008 -2.0882244898 
H -2.35745894878 4.97767749108 -2.26508636358 
H -0.847857289265 4.97615335063 -3.19361530837 
H -0.232127166274 7.18382957617 -2.19589276461 
H -1.7403244111 7.18520396195 -1.26667986593 
H -0.917968157803 9.17546573142 -3.31551210437 
H -2.42576241338 9.17754326896 -2.3837204701 
H -3.73471972421 8.95451351447 -4.50228649365 
H -2.22761217241 8.95310538179 -5.43354583564 
H -4.43057075856 10.9342532363 -5.62744772075 
H -2.92365623537 10.9335524056 -6.56057675896 
H -2.30623864304 13.1424323359 -5.56591677003 
H -3.81249994046 13.1439222294 -4.63320447632 
H -2.99550284638 15.1267239899 -6.68856243146 
H -4.5013553002 15.1307310342 -5.75426893592 
H -5.81464778659 14.9046786288 -7.86922341763 
H -4.3095270848 14.899475167 -8.80401853445 
H -6.5068186219 16.8876212879 -8.9941144083 
H -5.00154689348 16.8816615557 -9.92919120938 
H -4.37706066824 19.0905045769 -8.93804946809 
H -5.88217083131 19.0966430523 -8.00303222823 
H -5.06689865597 21.0745942618 -10.0653290889 
H -6.57114873022 21.0823256983 -9.12889328563 
H -7.88832424844 20.8554267404 -11.2420660511 
H -6.38437163115 20.8460092928 -12.1789152378 
H -8.57867916197 22.8388184472 -12.3737726477 
H -7.07355235492 22.8299980388 -13.3091943112 
H -6.44723009708 25.0411317869 -12.3215029546 
H -7.95169880113 25.0498310726 -11.3865098116 
H -8.71102282252 27.0246551936 -14.3007691803 
H -7.13887022035 27.0339906337 -13.4725049807 
H -8.662756419 27.0415224062 -12.5244979867 
