61

S          0.99857        0.07593        0.12592
C          2.83590        0.03571        0.09121
C          3.32106       -1.05931       -0.86310
O          4.75789       -1.06850       -0.87357
C          5.25090       -2.07589       -1.74986
C          6.77262       -2.04811       -1.72897
O          7.27779       -3.05625       -2.60591
C          8.70164       -3.06591       -2.61683
C          9.17828       -4.15686       -3.56477
O         10.60428       -4.17477       -3.58264
C         11.09559       -5.18432       -4.45955
C         12.61648       -5.15738       -4.43820
O         13.11382       -6.16707       -5.31340
C         14.53846       -6.18042       -5.32588
C         15.01199       -7.27212       -6.27315
O         16.43713       -7.28943       -6.28807
C         16.92996       -8.29987       -7.16333
C         18.45094       -8.27518       -7.13970
O         18.94570       -9.28631       -8.01374
C         20.37098       -9.30575       -8.02597
C         20.84462      -10.40095       -8.97130
O         22.27000      -10.42357       -8.98306
C         22.76431      -11.43763       -9.85635
C         24.28699      -11.41847       -9.82933
O         24.78919      -12.42983      -10.70077
C         26.21024      -12.44833      -10.70629
H          3.27301       -0.14830        1.08001
H          3.27219        0.99090       -0.22870
H          2.96339       -0.87314       -1.88418
H          2.96517       -2.04486       -0.53776
H          4.89147       -1.90108       -2.77106
H          4.89425       -3.06333       -1.43307
H          7.13448       -2.22347       -0.70859
H          7.13171       -1.06144       -2.04572
H          9.08791       -3.25466       -1.60801
H          9.08535       -2.09287       -2.94644
H          8.79168       -3.96869       -4.57370
H          8.79378       -5.13013       -3.23584
H         10.73425       -5.00884       -5.48004
H         10.73612       -6.17045       -4.14166
H         12.97753       -5.33168       -3.41730
H         12.97579       -4.17109       -4.75618
H         14.92418       -6.36934       -4.31685
H         14.92372       -5.20796       -5.65553
H         14.62584       -7.08333       -7.28222
H         14.62556       -8.24419       -5.94353
H         16.57003       -8.12439       -8.18434
H         16.56835       -9.28516       -6.84527
H         18.80990       -8.44911       -6.11810
H         18.81210       -7.28981       -7.45816
H         20.75462       -9.49359       -7.01592
H         20.75887       -8.33463       -8.35623
H         20.46107      -10.21141       -9.98101
H         20.45377      -11.37089       -8.64113
H         22.40719      -11.26166      -10.87819
H         22.39795      -12.42091       -9.53773
H         24.64155      -11.59237       -8.80611
H         24.65088      -10.43340      -10.14574
H         26.54123      -13.23704      -11.38688
H         26.59388      -12.66601       -9.70485
H         26.60400      -11.49112      -11.06149
