68

S 0.0483625831444 0.90215077659 0.0216737340793 
C 0.0483625831444 2.73982961113 0.0216737340793 
C -0.023985081291 3.26673744567 -1.41437049248 
O -0.0217414161336 4.70331810976 -1.38711851033 
C -0.0898296225717 5.23441127004 -2.70604997513 
C -0.0844697184053 6.75414488105 -2.62913150356 
O -0.154224342268 7.29606089243 -3.94912887032 
C -0.151443353496 8.7195321728 -3.92359628974 
C -0.229171968115 9.23611933403 -5.3528261948 
O -0.226423241359 10.661912227 -5.33755494328 
C -0.298602216351 11.1902820537 -6.65816940148 
C -0.291439577209 12.7091209019 -6.57999639968 
O -0.363325792617 13.24384566 -7.89897710814 
C -0.357663986673 14.6678149655 -7.8766945373 
C -0.437738213178 15.1812943181 -9.30528590455 
O -0.431485133879 16.6060025259 -9.28694223194 
C -0.505616606947 17.1368752202 -10.6058688795 
C -0.495376426755 18.6554918026 -10.5263882696 
O -0.569534894232 19.1880693218 -11.8454557845 
C -0.562053091509 20.6125323281 -11.8257327588 
C -0.642668212287 21.1261756623 -13.2550747547 
O -0.634123629223 22.5508518856 -13.2367068439 
C -0.708258041735 23.0834955128 -14.5559933362 
C -0.694577219034 24.6038134243 -14.4781931007 
O -0.768788163022 25.1395379404 -15.7970995058 
C -0.758535251466 26.5661370671 -15.776983866 
C -0.840458065205 27.0833701649 -17.2070973771 
O -0.830973805394 28.5094579372 -17.1959917757 
C -0.906649313168 29.035981989 -18.5144079678 
H 0.941075013407 3.16223529454 0.500038994077 
H -0.791831027857 3.16219085397 0.587235989872 
H -0.942823762089 2.92600400921 -1.90862632548 
H 0.839840153514 2.92508129412 -1.998941967 
H -1.00338698803 4.89247636031 -3.20719503669 
H 0.766199479997 4.89086676033 -3.29924138734 
H 0.829436885168 7.09903207281 -2.13020415784 
H -0.939679009297 7.10066937365 -2.03603863444 
H 0.762633132995 9.08924884539 -3.4433927316 
H -1.00707988873 9.09095661573 -3.34666623708 
H -1.14314570072 8.86626880688 -5.83326665923 
H 0.625857737929 8.86406152456 -5.93024747566 
H -1.2142827746 10.8470546586 -7.1546373449 
H 0.555189587506 10.8437110218 -7.25290478836 
H 0.623881262303 13.0522191479 -6.08279135181 
H -1.14524182016 13.0556020121 -5.98526327629 
H 0.558354488723 15.0358328639 -7.39901629999 
H -1.21097926931 15.0414579688 -7.29796565827 
H -1.35381793154 14.8133080764 -9.78301154601 
H 0.415362600944 14.8068430832 -9.88405172633 
H -1.42302268801 16.7959015549 -11.1007225821 
H 0.34619724218 16.7892861238 -11.2031692887 
H 0.421926715515 18.9963885561 -10.0312736299 
H -1.34716672578 19.0029867887 -9.9293013753 
H 0.354822555856 20.979393863 -11.3487021941 
H -1.41431732083 20.987304772 -11.2460907802 
H -1.55982063301 20.75898075 -13.7312362647 
H 0.209110032875 20.74975397 -13.8343295648 
H -1.6271515534 22.7442841383 -15.0495837966 
H 0.141741692338 22.7334676029 -15.1537621207 
H 0.223985267795 24.9418822462 -13.9837650865 
H -1.54473583125 24.9527359905 -13.8798708064 
H 0.159837523418 26.9295088169 -15.3006254686 
H -1.60924104381 26.9407636451 -15.1952885007 
H -1.75820800366 26.7158542101 -17.6817098537 
H 0.00984213396663 26.7048937893 -17.7870193126 
H -0.896214077152 30.1270027035 -18.4501751526 
H -1.83658715525 28.7226733622 -18.9987316796 
H -0.0449097783824 28.7118494801 -19.1059076386 
