68

S          0.99257       -0.04827       -0.13756
C          2.82949       -0.01753       -0.09520
C          3.31523        0.77653        1.12063
O          4.75219        0.78480        1.13170
C          5.24494        1.51329        2.25064
C          6.76647        1.49550        2.22213
O          7.27034        2.22347        3.34305
C          8.69411        2.23189        3.35533
C          9.16991        3.01714        4.56867
O         10.59549        3.03059        4.58974
C         11.08602        3.75736        5.71194
C         12.60643        3.73762        5.68304
O         13.10267        4.46411        6.80407
C         14.52665        4.47424        6.81971
C         14.99900        5.26092        8.03201
O         16.42361        5.27280        8.05013
C         16.91690        5.99961        9.17026
C         18.43727        5.98061        9.13924
O         18.93192        6.70773       10.25972
C         20.35638        6.72120       10.27501
C         20.82875        7.50874       11.48764
O         22.25327        7.52473       11.50446
C         22.74803        8.25359       12.62486
C         24.26930        8.23865       12.59278
O         24.76736        8.96618       13.71297
C         26.19365        8.98037       13.72757
C         26.66975        9.76896       14.94013
O         28.09623        9.78857       14.96230
C         28.58419       10.51691       16.08068
H          3.26537        0.43072       -0.99702
H          3.26785       -1.02248       -0.04894
H          2.95945        0.31897        2.05258
H          2.95852        1.81355        1.07681
H          4.88733        1.06382        3.18482
H          4.88650        2.54917        2.21812
H          7.12733        1.94625        1.28965
H          7.12794        0.46051        2.25434
H          9.07913        2.69429        2.43860
H          9.07986        1.20640        3.40131
H          8.78389        2.55540        5.48569
H          8.78396        4.04278        4.52332
H         10.72529        3.30570        6.64397
H         10.72626        4.79290        5.68022
H         12.96717        4.18885        4.75082
H         12.96621        2.70208        5.71475
H         14.91266        4.93544        5.90263
H         14.91259        3.44879        6.86728
H         14.61283        4.79986        8.94919
H         14.61275        6.28632        7.98460
H         16.55752        5.54822       10.10345
H         16.55640        7.03520        9.13938
H         18.79579        6.43180        8.20629
H         18.79721        4.94533        9.17055
H         20.74031        7.18327        9.35741
H         20.74406        5.69631       10.32163
H         20.44459        7.04574       12.40452
H         20.43899        8.53275       11.44093
H         22.38994        7.80141       13.55755
H         22.38417        9.28784       12.59291
H         24.62549        8.69100       11.65933
H         24.63114        7.20378       12.62259
H         26.57528        9.44173       12.80880
H         26.58019        7.95515       13.77364
H         26.28460        9.30679       15.85705
H         26.27915       10.79261       14.89284
H         29.67688       10.50176       16.05123
H         28.25279       10.05231       17.01441
H         28.24732       11.55715       16.03675
