47

S          0.93838       -0.04368       -0.06104
C          2.77546       -0.08554       -0.03055
C          3.26207       -1.24555        0.84321
O          4.69931       -1.25657        0.85194
C          5.19245       -2.32440        1.65418
C          6.71442       -2.29720        1.63437
O          7.22017       -3.36661        2.43575
C          8.64465       -3.37868        2.44509
C          9.12217       -4.53733        3.31004
O         10.54883       -4.55920        3.32646
C         11.03938       -5.63221        4.12636
C         12.56173       -5.60794        4.10833
O         13.05957       -6.67945        4.90752
C         14.48508       -6.69571        4.91986
C         14.96231       -7.85570        5.78347
O         16.38868       -7.87599        5.79836
C         16.88264       -8.94987        6.59766
C         18.40577       -8.92589        6.57750
O         18.90759       -9.99686        7.37469
C         20.32890      -10.01270        7.38396
H          3.21261        0.84430        0.35481
H          3.21175       -0.20001       -1.03093
H          2.90552       -2.20588        0.44908
H          2.90509       -1.13233        1.87494
H          4.83433       -3.28645        1.26849
H          4.83370       -2.22221        2.68552
H          7.07484       -1.33643        2.02158
H          7.07535       -2.39843        0.60370
H          9.02918       -2.43275        2.84492
H          9.02962       -3.49298        1.42468
H          8.73601       -5.48299        2.91063
H          8.73601       -4.42342        4.33022
H         10.67773       -6.59106        3.73578
H         10.67767       -5.53207        5.15674
H         12.92229       -4.64822        4.49781
H         12.92262       -5.70730        3.07762
H         14.87020       -5.75013        5.32172
H         14.87099       -6.80762        3.89965
H         14.57596       -8.80031        5.38218
H         14.57611       -7.74258        6.80363
H         16.51984       -9.90808        6.20728
H         16.52194       -8.84917        7.62832
H         18.76647       -7.96581        6.96600
H         18.76415       -9.02422        5.54564
H         20.65969      -10.84834        8.00612
H         20.71910       -9.08321        7.80967
H         20.71655      -10.15562        6.37068
