54

S          0.83347        0.08831        0.07994
C          2.67045        0.06249        0.03318
C          3.15578       -0.80418       -1.13228
O          4.59286       -0.80895       -1.14679
C          5.08588       -1.60482       -2.21900
C          6.60790       -1.58075       -2.19495
O          7.11333       -2.37595       -3.26881
C          8.53769       -2.38137       -3.28333
C          9.01457       -3.24222       -4.44480
O         10.44072       -3.25609       -4.46803
C         10.93125       -4.05307       -5.54272
C         12.45279       -4.03341       -5.51782
O         12.95020       -4.83010       -6.59096
C         14.37552       -4.84137       -6.60683
C         14.85165       -5.70223       -7.76818
O         16.27745       -5.71474       -7.78790
C         16.77269       -6.51068       -8.86182
C         18.29463       -6.48922       -8.83631
O         18.79321       -7.28567       -9.90935
C         20.22020       -7.29649       -9.92637
C         20.69822       -8.15803      -11.08796
O         22.12454       -8.17310      -11.11108
C         22.61533       -8.96787      -12.18316
H          3.11102       -0.32647        0.95990
H          3.10415        1.06445       -0.07735
H          2.79608       -0.40639       -2.08987
H          2.80223       -1.83748       -1.02326
H          4.72482       -1.21574       -3.17871
H          4.73048       -2.63759       -2.12102
H          6.97128       -1.97095       -1.23653
H          6.96562       -0.54857       -2.29245
H          8.92527       -2.78269       -2.33925
H          8.91990       -1.35974       -3.39591
H          8.62676       -2.84060       -5.38909
H          8.62991       -4.26324       -4.33351
H         10.56934       -3.66090       -6.50082
H         10.57065       -5.08417       -5.44496
H         12.81404       -4.42430       -4.55894
H         12.81292       -3.00199       -5.61539
H         14.76083       -5.24374       -5.66238
H         14.76029       -3.82037       -6.71793
H         14.46456       -5.30025       -8.71220
H         14.46684       -6.72311       -7.65638
H         16.41057       -6.11920       -9.82016
H         16.41306       -7.54216       -8.76418
H         18.65564       -6.87928       -7.87694
H         18.65316       -5.45720       -8.93382
H         20.60527       -7.69782       -8.98111
H         20.60354       -6.27490      -10.03721
H         20.30995       -7.75589      -12.03157
H         20.31203       -9.17839      -10.97570
H         23.70769       -8.94600      -12.15603
H         22.28064       -8.56367      -13.14344
H         22.28293      -10.00476      -12.07407
