40
Coordinates from ORCA-job OEG5
  S   -0.20449000000000     -3.58696000000000     -2.43865000000000
  C   -0.20449000000000     -1.74897000000000     -2.43865000000000
  C   -0.10199000000000     -1.22162000000000     -1.00422000000000
  O   -0.10273000000000      0.21561000000000     -1.02977000000000
  C   -0.00688000000000      0.74670000000000      0.28808000000000
  C   -0.01067000000000      2.26797000000000      0.21258000000000
  O   0.08577000000000      2.81351000000000      1.53035000000000
  C   0.08649000000000      4.23847000000000      1.50322000000000
  C   0.19211000000000      4.76185000000000      2.93029000000000
  O   0.19435000000000      6.18940000000000      2.91484000000000
  C   0.29219000000000      6.72198000000000      4.23423000000000
  C   0.28959000000000      8.24378000000000      4.15906000000000
  O   0.38635000000000      8.78367000000000      5.47689000000000
  C   0.38648000000000     10.21075000000000      5.45434000000000
  C   0.49040000000000     10.73294000000000      6.88192000000000
  O   0.49100000000000     12.16016000000000      6.86965000000000
  C   0.58677000000000     12.68854000000000      8.18561000000000
  H   -1.10713000000000     -1.32712000000000     -2.89848000000000
  H   0.62364000000000     -1.32715000000000     -3.02211000000000
  H   0.82621000000000     -1.56408000000000     -0.52909000000000
  H   -0.95411000000000     -1.56265000000000     -0.40241000000000
  H   0.91606000000000      0.40250000000000      0.76994000000000
  H   -0.85154000000000      0.40427000000000      0.89782000000000
  H   -0.93320000000000      2.61403000000000     -0.26913000000000
  H   0.83336000000000      2.61190000000000     -0.39745000000000
  H   -0.83531000000000      4.60856000000000      1.03868000000000
  H   0.93218000000000      4.60516000000000      0.90923000000000
  H   1.11328000000000      4.38975000000000      3.39482000000000
  H   -0.65343000000000      4.39399000000000      3.52408000000000
  H   1.21540000000000      6.37494000000000      4.71401000000000
  H   -0.55215000000000      6.37830000000000      4.84394000000000
  H   -0.63276000000000      8.59010000000000      3.67768000000000
  H   1.13418000000000      8.58671000000000      3.54925000000000
  H   -0.53525000000000     10.58056000000000      4.98882000000000
  H   1.23225000000000     10.57851000000000      4.86070000000000
  H   1.41177000000000     10.36080000000000      7.34617000000000
  H   -0.35486000000000     10.36246000000000      7.47429000000000
  H   0.58303000000000     13.77975000000000      8.11965000000000
  H   1.52043000000000     12.37002000000000      8.65917000000000
  H   -0.26955000000000     12.37171000000000      8.78874000000000
