40
Coordinates from ORCA-job OEG5
  S   -3.51012000000000     -2.09839000000000     -1.47109000000000
  C   -1.67293000000000     -2.05628000000000     -1.43646000000000
  C   -1.18826000000000     -0.87324000000000     -0.59267000000000
  O   0.24910000000000     -0.86083000000000     -0.58126000000000
  C   0.74145000000000      0.22661000000000      0.19535000000000
  C   2.26436000000000      0.20042000000000      0.17824000000000
  O   2.77152000000000      1.28738000000000      0.95584000000000
  C   4.19678000000000      1.29917000000000      0.96442000000000
  C   4.67809000000000      2.47417000000000      1.80669000000000
  O   6.10560000000000      2.49630000000000      1.82235000000000
  C   6.59861000000000      3.58353000000000      2.60281000000000
  C   8.12207000000000      3.56063000000000      2.58540000000000
  O   8.62222000000000      4.64649000000000      3.36538000000000
  C   10.04924000000000      4.66424000000000      3.37540000000000
  C   10.52868000000000      5.83824000000000      4.22063000000000
  O   11.95561000000000      5.86373000000000      4.23633000000000
  C   12.44513000000000      6.94678000000000      5.01561000000000
  H   -1.23403000000000     -1.96918000000000     -2.43840000000000
  H   -1.23763000000000     -2.97570000000000     -1.02500000000000
  H   -1.54715000000000     -0.95960000000000      0.44092000000000
  H   -1.54444000000000      0.07613000000000     -1.01266000000000
  H   0.38153000000000      0.14886000000000      1.22839000000000
  H   0.38296000000000      1.17863000000000     -0.21391000000000
  H   2.62565000000000      0.27842000000000     -0.85434000000000
  H   2.62437000000000     -0.75168000000000      0.58657000000000
  H   4.58052000000000      1.39308000000000     -0.05851000000000
  H   4.58052000000000      0.36062000000000      1.38195000000000
  H   4.29273000000000      2.38020000000000      2.82917000000000
  H   4.29240000000000      3.41233000000000      1.38961000000000
  H   6.23726000000000      3.50179000000000      3.63500000000000
  H   6.23696000000000      4.53498000000000      2.19536000000000
  H   8.48242000000000      3.64181000000000      1.55282000000000
  H   8.48332000000000      2.60825000000000      2.99176000000000
  H   10.43216000000000      4.76135000000000      2.35235000000000
  H   10.43485000000000      3.72517000000000      3.78997000000000
  H   10.14334000000000      5.74062000000000      5.24274000000000
  H   10.14065000000000      6.77638000000000      3.80588000000000
  H   13.53774000000000      6.91991000000000      4.99421000000000
  H   12.11333000000000      6.85223000000000      6.05407000000000
  H   12.11066000000000      7.90131000000000      4.59783000000000
