26
Coordinates from ORCA-job OEG3
  S   -1.98209000000000      1.50263000000000      0.28342000000000
  C   -0.14455000000000      1.45215000000000      0.27201000000000
  C   0.34261000000000      0.02986000000000     -0.02268000000000
  O   1.78029000000000      0.01477000000000     -0.02724000000000
  C   2.27464000000000     -1.29310000000000     -0.29999000000000
  C   3.79851000000000     -1.26187000000000     -0.29393000000000
  O   4.30827000000000     -2.56967000000000     -0.56665000000000
  C   5.73464000000000     -2.58285000000000     -0.56950000000000
  C   6.21735000000000     -3.99846000000000     -0.86478000000000
  O   7.64516000000000     -4.03069000000000     -0.87176000000000
  C   8.13080000000000     -5.33807000000000     -1.14436000000000
  H   0.29187000000000      1.77691000000000      1.22502000000000
  H   0.29098000000000      2.12866000000000     -0.47417000000000
  H   -0.01549000000000     -0.30825000000000     -1.00350000000000
  H   -0.01363000000000     -0.66973000000000      0.74426000000000
  H   1.91543000000000     -1.63805000000000     -1.27692000000000
  H   1.91592000000000     -1.99976000000000      0.45787000000000
  H   4.15858000000000     -0.91633000000000      0.68266000000000
  H   4.15813000000000     -0.55489000000000     -1.05129000000000
  H   6.11749000000000     -2.25463000000000      0.40417000000000
  H   6.11732000000000     -1.89284000000000     -1.33099000000000
  H   5.83060000000000     -4.32602000000000     -1.83743000000000
  H   5.83097000000000     -4.68747000000000     -0.10386000000000
  H   9.22364000000000     -5.30777000000000     -1.13831000000000
  H   7.79637000000000     -5.67366000000000     -2.13082000000000
  H   7.79680000000000     -6.03977000000000     -0.37388000000000
