26
Coordinates from ORCA-job OEG3
  S   -1.09620000000000      0.88618000000000     -2.07485000000000
  C   -1.09620000000000      0.88618000000000     -0.23659000000000
  C   0.03706000000000      0.00067000000000      0.29125000000000
  O   0.01696000000000      0.01505000000000      1.72880000000000
  C   1.05913000000000     -0.79765000000000      2.26043000000000
  C   0.99841000000000     -0.75453000000000      3.78271000000000
  O   2.04055000000000     -1.56683000000000      4.32951000000000
  C   2.01793000000000     -1.55347000000000      5.75573000000000
  C   3.14765000000000     -2.43354000000000      6.27802000000000
  O   3.14038000000000     -2.43231000000000      7.70636000000000
  C   4.18281000000000     -3.24472000000000      8.22883000000000
  H   -2.04272000000000      0.52474000000000      0.18487000000000
  H   -0.97428000000000      1.89200000000000      0.18483000000000
  H   1.01174000000000      0.37205000000000     -0.05034000000000
  H   -0.08675000000000     -1.03461000000000     -0.05146000000000
  H   2.03541000000000     -0.43379000000000      1.91844000000000
  H   0.94706000000000     -1.83223000000000      1.91474000000000
  H   0.02222000000000     -1.11803000000000      4.12557000000000
  H   1.10987000000000      0.27994000000000      4.12940000000000
  H   1.05460000000000     -1.92807000000000      6.12186000000000
  H   2.14271000000000     -0.52893000000000      6.12601000000000
  H   4.10999000000000     -2.05918000000000      5.90825000000000
  H   3.02279000000000     -3.45707000000000      5.90405000000000
  H   4.13298000000000     -3.20919000000000      9.32041000000000
  H   5.15950000000000     -2.86664000000000      7.91151000000000
  H   4.05763000000000     -4.28320000000000      7.90727000000000
