35

S          4.12501        0.32413       -1.66005
C          3.87951       -1.48954       -1.38187
C          5.17806       -2.14167       -0.88557
N          5.61862       -1.54440        0.36039
C          6.48827       -2.16752        1.20216
O          6.88760       -3.31992        1.06627
N          6.82100       -1.38286        2.27392
C          7.59991       -1.89252        3.37699
C          9.10305       -1.78341        3.12972
C          9.89297       -2.40976        4.28143
C         11.40364       -2.29879        4.06297
C         12.17990       -2.93172        5.22125
C         13.68996       -2.81883        5.01097
C         14.46328       -3.44469        6.16131
H          3.56431       -2.01202       -2.29322
H          3.09169       -1.67664       -0.64102
H          5.99169       -2.02485       -1.61141
H          5.02617       -3.21491       -0.72921
H          5.54491       -0.53448        0.33221
H          6.47648       -0.43396        2.27595
H          7.32074       -2.93778        3.55017
H          7.31561       -1.31916        4.26673
H          9.38044       -0.72867        3.01344
H          9.36638       -2.28389        2.18834
H          9.61669       -3.46654        4.38077
H          9.62233       -1.91586        5.22278
H         11.68427       -1.24316        3.96614
H         11.67695       -2.79468        3.12383
H         11.90104       -3.98833        5.31652
H         11.90297       -2.43927        6.16144
H         13.97509       -1.76441        4.91879
H         13.97383       -3.31507        4.07568
H         14.22715       -2.94984        7.10882
H         15.54025       -3.35131        5.98923
H         14.22677       -4.50889        6.26094
