35

S          4.27395        6.81921        2.36639
C          3.68236        5.30054        3.24913
C          3.58816        4.10732        2.27886
N          4.90409        3.85081        1.71472
C          5.40942        2.72729        1.14827
S          4.56110        1.33872        0.77799
N          6.76519        2.74175        0.94757
C          7.64253        3.78802        1.43863
C          9.12397        3.44639        1.32495
C          9.94265        4.64301        1.81133
C         11.44671        4.40318        1.72914
C         12.20674        5.64585        2.19975
C         13.71759        5.44638        2.12022
C         14.46299        6.68672        2.58745
H          2.70538        5.44485        3.72310
H          4.37536        5.03167        4.05769
H          2.89360        4.30133        1.45401
H          3.24898        3.21504        2.81461
H          5.36901        4.74042        1.54551
H          7.15840        1.87302        0.61364
H          7.38897        3.97753        2.48868
H          7.42186        4.69771        0.86497
H          9.37729        3.20491        0.28634
H          9.34940        2.55840        1.92709
H          9.66825        4.87376        2.84811
H          9.68363        5.52408        1.21027
H         11.72806        4.16482        0.69677
H         11.71910        3.54197        2.35076
H         11.91993        5.88152        3.23233
H         11.91816        6.50646        1.58356
H         14.00960        5.21657        1.08911
H         14.01335        4.59248        2.74057
H         14.20953        7.55194        1.96717
H         15.54334        6.52607        2.52409
H         14.21389        6.92611        3.62606
