36

S          3.58927        1.22336        8.11834
C          2.78595       -0.25966        7.35656
C          3.21998       -0.41394        5.89163
N          4.65738       -0.55906        5.79316
C          5.28093       -1.11015        4.70710
O          4.68831       -1.60834        3.75386
C          6.79394       -1.07140        4.81149
C          7.45113       -1.86049        3.67624
C          8.98021       -1.85274        3.72142
C          9.53748       -2.51018        4.98311
C         11.06477       -2.53503        4.98422
C         11.58508       -3.16432        6.27680
C         13.11045       -3.17998        6.31820
C         13.61805       -3.80719        7.60643
H          1.69167       -0.20371        7.38406
H          3.05519       -1.17660        7.89582
H          2.93253        0.45390        5.28871
H          2.74296       -1.29754        5.44850
H          5.14912        0.03737        6.45635
H          7.06834       -1.49454        5.78335
H          7.11968       -0.02610        4.78277
H          7.13188       -1.44222        2.71314
H          7.09340       -2.89805        3.69410
H          9.34570       -0.82214        3.64223
H          9.35345       -2.39038        2.84055
H          9.15230       -3.53402        5.06385
H          9.19924       -1.96485        5.87047
H         11.45007       -1.51254        4.88966
H         11.42937       -3.10234        4.11960
H         11.20262       -4.18867        6.36523
H         11.20154       -2.60293        7.13795
H         13.49561       -2.15683        6.23855
H         13.50082       -3.74305        5.46280
H         13.26841       -3.24651        8.47939
H         14.71205       -3.81193        7.62053
H         13.27120       -4.84118        7.70170
