36

S          4.43886       -0.23409       -2.25855
C          3.81718        1.32650       -1.53695
C          4.37841        1.57540       -0.12851
C          5.90142        1.63725        0.02107
C          6.54867        2.68208       -0.86171
O          6.84559        3.80099       -0.44673
N          6.77618        2.25798       -2.15028
C          7.28000        3.14250       -3.17100
C          8.80694        3.18482       -3.17660
C          9.33234        4.18090       -4.21073
C         10.86157        4.20819       -4.23075
C         11.38462        5.20990       -5.26372
C         12.91276        5.23773       -5.28879
C         13.43426        6.23086       -6.31521
H          2.72245        1.32688       -1.45506
H          4.04360        2.19294       -2.16901
H          3.99433        0.81386        0.56337
H          3.96645        2.53224        0.22046
H          6.36670        0.66426       -0.17281
H          6.15316        1.88017        1.06052
H          6.28298        1.39792       -2.42809
H          6.87049        4.14534       -3.00350
H          6.90404        2.77973       -4.13337
H          9.19776        2.18244       -3.39194
H          9.17840        3.45888       -2.18157
H          8.95096        5.18324       -3.98016
H          8.95603        3.91294       -5.20539
H         11.24410        3.20704       -4.46291
H         11.23827        4.47659       -3.23644
H         11.00499        6.21150       -5.02811
H         11.00447        4.94479       -6.25707
H         13.29935        4.23975       -5.52595
H         13.29694        5.50890       -4.29887
H         13.09283        5.97103       -7.32213
H         14.52895        6.23369       -6.31753
H         13.09228        7.24555       -6.08758
