35

S          2.14510        1.72875       -0.43379
C          3.87506        1.63190       -1.01618
C          4.34084        2.93810       -1.68014
C          4.39054        4.17457       -0.77392
N          5.26950        3.99944        0.36849
C          6.60071        4.29555        0.31137
O          7.15537        4.85686       -0.62436
N          7.25468        3.92194        1.45792
C          8.64833        4.24213        1.67493
C          8.85978        5.66481        2.19837
C          8.26884        5.86595        3.59648
C          8.53785        7.27630        4.12620
C          7.93296        7.46378        5.51810
C          8.18657        8.86181        6.05830
H          3.99337        0.83328       -1.76016
H          4.57133        1.36969       -0.21118
H          3.71038        3.16436       -2.54989
H          5.35076        2.76185       -2.07512
H          3.40105        4.43315       -0.38598
H          4.74129        5.03170       -1.35980
H          4.94914        3.29885        1.02137
H          6.68183        3.63650        2.23630
H          9.18522        4.12382        0.72736
H          9.04781        3.50684        2.38101
H          8.41938        6.39127        1.50473
H          9.93762        5.86578        2.23149
H          8.70076        5.12930        4.28468
H          7.18700        5.69088        3.57119
H          8.11312        8.01651        3.43719
H          9.61922        7.45526        4.16719
H          8.35905        6.72849        6.21065
H          6.85194        7.28482        5.48057
H          9.25941        9.06215        6.14190
H          7.74279        8.96877        7.05326
H          7.74384        9.62121        5.40601
