47
Coordinates from ORCA-job OEG6
  S   2.88299000000000     -4.27124000000000      0.42226000000000
  C   2.88299000000000     -2.43344000000000      0.42226000000000
  C   1.46204000000000     -1.90622000000000      0.20201000000000
  O   1.48837000000000     -0.46916000000000      0.20707000000000
  C   0.18227000000000      0.06194000000000      0.00636000000000
  C   0.25828000000000      1.58264000000000      0.01945000000000
  O   -1.04792000000000      2.12670000000000     -0.17962000000000
  C   -1.02268000000000      3.55117000000000     -0.17346000000000
  C   -2.43825000000000      4.07049000000000     -0.38680000000000
  O   -2.42517000000000      5.49745000000000     -0.38241000000000
  C   -3.73439000000000      6.02619000000000     -0.57833000000000
  C   -3.66231000000000      7.54694000000000     -0.56453000000000
  O   -4.97002000000000      8.08234000000000     -0.75973000000000
  C   -4.95113000000000      9.50800000000000     -0.75575000000000
  C   -6.36778000000000     10.02537000000000     -0.96717000000000
  O   -6.35334000000000     11.45193000000000     -0.96596000000000
  C   -7.66301000000000     11.98351000000000     -1.16122000000000
  C   -7.58957000000000     13.50516000000000     -1.15324000000000
  O   -8.89525000000000     14.04532000000000     -1.34828000000000
  C   -8.87295000000000     15.46619000000000     -1.34788000000000
  H   3.53259000000000     -2.01130000000000     -0.35492000000000
  H   3.26668000000000     -2.01132000000000      1.35970000000000
  H   0.79150000000000     -2.24823000000000      1.00073000000000
  H   1.06543000000000     -2.24695000000000     -0.76304000000000
  H   -0.49337000000000     -0.28167000000000      0.79843000000000
  H   -0.22364000000000     -0.28001000000000     -0.95314000000000
  H   0.93283000000000      1.92882000000000     -0.77299000000000
  H   0.66504000000000      1.92671000000000      0.97805000000000
  H   -0.36652000000000      3.92183000000000     -0.97006000000000
  H   -0.63157000000000      3.91943000000000      0.78242000000000
  H   -3.09453000000000      3.69812000000000      0.40920000000000
  H   -2.82978000000000      3.70104000000000     -1.34237000000000
  H   -4.40560000000000      5.67823000000000      0.21606000000000
  H   -4.14204000000000      5.68160000000000     -1.53633000000000
  H   -2.99044000000000      7.89416000000000     -1.35876000000000
  H   -3.25352000000000      7.89080000000000      0.39329000000000
  H   -4.29638000000000      9.87909000000000     -1.55342000000000
  H   -4.55839000000000      9.87771000000000      0.19909000000000
  H   -7.02153000000000      9.65418000000000     -0.16871000000000
  H   -6.76033000000000      9.65314000000000     -1.92114000000000
  H   -8.33229000000000     11.63838000000000     -0.36401000000000
  H   -8.07248000000000     11.63511000000000     -2.11703000000000
  H   -6.91785000000000     13.84780000000000     -1.94959000000000
  H   -7.17789000000000     13.85117000000000     -0.19741000000000
  H   -9.89337000000000     15.82630000000000     -1.50002000000000
  H   -8.24508000000000     15.83926000000000     -2.16290000000000
  H   -8.50869000000000     15.84283000000000     -0.38715000000000
