47
Coordinates from ORCA-job OEG6
  S   -4.21578000000000      2.36276000000000     -1.81581000000000
  C   -2.37870000000000      2.32090000000000     -1.78532000000000
  C   -1.89209000000000      1.16089000000000     -0.91156000000000
  O   -0.45485000000000      1.14987000000000     -0.90283000000000
  C   0.03829000000000      0.08204000000000     -0.10059000000000
  C   1.56026000000000      0.10924000000000     -0.12040000000000
  O   2.06601000000000     -0.96017000000000      0.68098000000000
  C   3.49049000000000     -0.97224000000000      0.69032000000000
  C   3.96801000000000     -2.13089000000000      1.55527000000000
  O   5.39467000000000     -2.15276000000000      1.57169000000000
  C   5.88522000000000     -3.22577000000000      2.37159000000000
  C   7.40757000000000     -3.20150000000000      2.35356000000000
  O   7.90541000000000     -4.27301000000000      3.15275000000000
  C   9.33092000000000     -4.28927000000000      3.16509000000000
  C   9.80815000000000     -5.44926000000000      4.02870000000000
  O   11.23452000000000     -5.46955000000000      4.04359000000000
  C   11.72848000000000     -6.54343000000000      4.84289000000000
  C   13.25161000000000     -6.51945000000000      4.82273000000000
  O   13.75343000000000     -7.59042000000000      5.61992000000000
  C   15.17474000000000     -7.60626000000000      5.62919000000000
  H   -1.94155000000000      3.25074000000000     -1.39996000000000
  H   -1.94241000000000      2.20643000000000     -2.78570000000000
  H   -2.24864000000000      0.20056000000000     -1.30569000000000
  H   -2.24907000000000      1.27411000000000      0.12017000000000
  H   -0.31983000000000     -0.88001000000000     -0.48628000000000
  H   -0.32046000000000      0.18423000000000      0.93075000000000
  H   1.92068000000000      1.07001000000000      0.26681000000000
  H   1.92119000000000      0.00801000000000     -1.15107000000000
  H   3.87502000000000     -0.02631000000000      1.09015000000000
  H   3.87546000000000     -1.08654000000000     -0.33009000000000
  H   3.58185000000000     -3.07655000000000      1.15586000000000
  H   3.58185000000000     -2.01698000000000      2.57545000000000
  H   5.52357000000000     -4.18462000000000      1.98101000000000
  H   5.52351000000000     -3.12563000000000      3.40197000000000
  H   7.76813000000000     -2.24178000000000      2.74304000000000
  H   7.76846000000000     -3.30086000000000      1.32285000000000
  H   9.71604000000000     -3.34369000000000      3.56695000000000
  H   9.71683000000000     -4.40118000000000      2.14488000000000
  H   9.42180000000000     -6.39387000000000      3.62741000000000
  H   9.42195000000000     -5.33614000000000      5.04886000000000
  H   11.36568000000000     -7.50164000000000      4.45251000000000
  H   11.36778000000000     -6.44273000000000      5.87355000000000
  H   13.61231000000000     -5.55937000000000      5.21123000000000
  H   13.60999000000000     -6.61778000000000      3.79087000000000
  H   15.50553000000000     -8.44190000000000      6.25135000000000
  H   15.56494000000000     -6.67677000000000      6.05490000000000
  H   15.56239000000000     -7.74918000000000      4.61591000000000
